Version 4
SHEET 1 880 680
WIRE -96 -224 -96 -272
WIRE -224 -176 -224 -256
WIRE -96 -64 -96 -144
WIRE -224 -16 -224 -96
WIRE -160 -16 -224 -16
WIRE -48 0 -96 0
WIRE -96 80 -96 32
FLAG -224 -256 0
FLAG -96 -272 0
FLAG -48 0 0
FLAG -96 80 0
SYMBOL ALD1101 -160 -64 R0
SYMATTR InstName M1
SYMBOL voltage -224 -80 R180
WINDOW 0 24 96 Left 2
WINDOW 3 24 16 Left 2
WINDOW 123 0 0 Left 0
WINDOW 39 0 0 Left 0
SYMATTR InstName VG
SYMATTR Value 1
SYMBOL voltage -96 -128 R180
WINDOW 0 24 96 Left 2
WINDOW 3 24 16 Left 2
WINDOW 123 0 0 Left 0
WINDOW 39 0 0 Left 0
SYMATTR InstName VD
SYMATTR Value 1
TEXT -282 104 Left 2 !.dc VG 0 3 0.01
TEXT 0 -128 Left 2 !.lib ECE331_354.lib
