Version 4
SHEET 1 880 680
WIRE 336 -144 176 -144
WIRE 336 -96 336 -144
WIRE 176 -64 176 -144
WIRE 176 -16 176 -64
WIRE 336 32 336 -16
WIRE 176 96 176 64
WIRE 176 128 176 96
WIRE 16 176 -48 176
WIRE 112 176 16 176
WIRE 256 192 176 192
WIRE -48 208 -48 176
WIRE 176 272 176 224
WIRE 256 272 256 192
WIRE -48 336 -48 288
FLAG 176 272 0
FLAG 256 272 0
FLAG 336 32 0
FLAG -48 336 0
FLAG 16 176 Vin
FLAG 176 96 Vout
FLAG 176 -64 Vdd
SYMBOL ALD1101 112 128 R0
SYMATTR InstName M1
SYMBOL res 160 -32 R0
SYMATTR InstName R1
SYMATTR Value 1256
SYMBOL voltage 336 -112 R0
WINDOW 123 0 0 Left 0
WINDOW 39 0 0 Left 0
SYMATTR InstName V1
SYMATTR Value 1.2
SYMBOL voltage -48 192 R0
WINDOW 123 0 0 Left 0
WINDOW 39 0 0 Left 0
SYMATTR InstName V2
SYMATTR Value SINE(1.182 5m 1k)
TEXT 424 176 Left 2 !.lib ECE331_354.lib
TEXT -82 360 Left 2 !.tran 0 0.01 0 1000
