Version 4
SHEET 1 880 680
WIRE 288 -64 224 -64
WIRE 304 -64 288 -64
WIRE 304 -16 304 -64
WIRE 224 112 224 -64
WIRE 256 112 224 112
WIRE 224 128 224 112
WIRE 256 160 256 112
WIRE 256 160 224 160
WIRE 80 176 0 176
WIRE 160 176 80 176
WIRE 224 256 224 224
WIRE 272 256 224 256
WIRE 224 272 224 256
WIRE 0 320 0 256
WIRE 224 416 224 352
FLAG 304 64 0
FLAG 288 -64 VDD
FLAG 224 416 0
FLAG 0 320 0
FLAG 80 176 Vin
FLAG 272 256 Vout
SYMBOL voltage 304 -32 R0
WINDOW 123 0 0 Left 0
WINDOW 39 0 0 Left 0
SYMATTR InstName VDD
SYMATTR Value 5
SYMBOL voltage 0 160 R0
WINDOW 123 0 0 Left 0
WINDOW 39 0 0 Left 0
SYMATTR InstName Vin
SYMATTR Value 3.66
SYMBOL ALD1102 160 128 R0
SYMATTR InstName M1
SYMBOL res 208 256 R0
SYMATTR InstName R1
SYMATTR Value 4310
TEXT 472 344 Left 2 !.lib ECE331_354.lib
TEXT -34 440 Left 2 !.dc Vin 0 5 0.001
