Version 4
SHEET 1 980 680
WIRE 64 -208 -80 -208
WIRE 400 -208 64 -208
WIRE 720 -208 400 -208
WIRE -80 -144 -80 -208
WIRE 400 -144 400 -208
WIRE 400 -144 368 -144
WIRE 720 -144 720 -208
WIRE 752 -144 720 -144
WIRE 368 -112 368 -144
WIRE 400 -112 368 -112
WIRE 752 -112 752 -144
WIRE 752 -112 720 -112
WIRE 560 -96 464 -96
WIRE 656 -96 560 -96
WIRE 64 -48 64 -208
WIRE -80 -32 -80 -64
WIRE 400 -32 400 -48
WIRE 560 -32 560 -96
WIRE 560 -32 400 -32
WIRE 720 -16 720 -48
WIRE 768 -16 720 -16
WIRE 400 32 400 -32
WIRE 720 32 720 -16
WIRE 336 80 256 80
WIRE 832 80 784 80
WIRE 256 96 256 80
WIRE 432 96 400 96
WIRE 720 96 672 96
WIRE 432 128 432 96
WIRE 672 128 672 96
WIRE 832 128 832 80
WIRE 64 176 64 32
WIRE 192 176 64 176
WIRE 256 208 256 176
WIRE 64 240 64 176
WIRE 400 240 400 128
WIRE 576 240 400 240
WIRE 720 240 720 128
WIRE 720 240 576 240
WIRE 192 288 192 176
WIRE 192 288 128 288
WIRE 512 288 192 288
WIRE 64 304 48 304
WIRE 592 304 576 304
WIRE 48 336 48 304
WIRE 64 336 48 336
WIRE 592 336 592 304
WIRE 592 336 576 336
WIRE 64 400 64 336
WIRE 576 400 576 336
FLAG 64 400 0
FLAG 576 400 0
FLAG 400 -32 Vx
FLAG 768 -16 Vo
IOPIN 768 -16 Out
FLAG -80 -32 0
FLAG 432 128 0
FLAG 672 128 0
FLAG 832 128 0
FLAG 832 80 Vin
IOPIN 832 80 In
FLAG 256 208 0
SYMBOL ALD1102 656 -144 R0
SYMATTR InstName M2
SYMBOL ALD1102 464 -144 M0
SYMATTR InstName M1
SYMBOL ALD1101 512 240 R0
SYMATTR InstName M5
SYMBOL ALD1101 128 240 M0
SYMATTR InstName M6
SYMBOL res 48 -64 R0
SYMATTR InstName R1
SYMATTR Value 5k
SYMBOL ALD1101 784 32 M0
SYMATTR InstName M4
SYMBOL ALD1101 336 32 R0
SYMATTR InstName M3
SYMBOL voltage -80 -160 R0
WINDOW 123 0 0 Left 0
WINDOW 39 0 0 Left 0
SYMATTR InstName VDD
SYMATTR Value 5
SYMBOL voltage 256 80 R0
WINDOW 123 0 0 Left 0
WINDOW 39 0 0 Left 0
SYMATTR InstName V2
SYMATTR Value Vip
TEXT 750 440 Left 2 !.ac lin 100 0.1 1
TEXT 752 464 Left 2 !.lib ECE331_354.lib
