Version 4
SHEET 1 880 680
WIRE 448 -128 240 -128
WIRE 448 -80 448 -128
WIRE 448 -64 448 -80
WIRE 240 80 240 -128
WIRE 176 128 80 128
WIRE -32 224 -144 224
WIRE 80 224 80 128
WIRE 80 224 -32 224
WIRE 240 240 240 176
WIRE 384 240 240 240
WIRE 576 240 448 240
WIRE -144 256 -144 224
WIRE 240 288 240 240
WIRE 576 288 576 240
WIRE 80 336 80 224
WIRE 176 336 80 336
WIRE -144 448 -144 336
WIRE 240 448 240 384
WIRE 576 448 576 368
FLAG 240 448 0
FLAG 448 0 0
FLAG 576 448 0
FLAG 240 240 Vx
FLAG 576 240 Vo
FLAG -144 448 0
FLAG -32 224 Vi
SYMBOL IRF510 176 80 R0
SYMATTR InstName U1
SYMBOL IRF9510 176 288 R0
SYMATTR InstName U2
SYMBOL voltage 448 -96 R0
WINDOW 3 24 44 Left 2
WINDOW 123 0 0 Left 0
WINDOW 39 0 0 Left 0
SYMATTR Value 12
SYMATTR InstName VDD
SYMBOL cap 384 256 R270
WINDOW 0 32 32 VTop 2
WINDOW 3 0 32 VBottom 2
SYMATTR InstName Cs
SYMATTR Value 398µ
SYMBOL res 560 272 R0
SYMATTR InstName RL
SYMATTR Value 8
SYMBOL voltage -144 240 R0
WINDOW 123 0 0 Left 0
WINDOW 39 0 0 Left 0
SYMATTR InstName Vi
SYMATTR Value SINE(6 6 1k)
TEXT 360 536 Left 2 !.lib ECE331_354.lib
TEXT -178 556 Left 2 !.tran 50ms
