Version 4
SHEET 1 880 680
WIRE 64 -240 -352 -240
WIRE 272 -240 64 -240
WIRE 400 -240 272 -240
WIRE -352 -160 -352 -240
WIRE -352 -160 -384 -160
WIRE 64 -160 64 -240
WIRE 80 -160 64 -160
WIRE -352 -144 -352 -160
WIRE 64 -144 64 -160
WIRE 400 -144 400 -240
WIRE -384 -112 -384 -160
WIRE -352 -112 -384 -112
WIRE 80 -112 80 -160
WIRE 80 -112 64 -112
WIRE -224 -96 -288 -96
WIRE 0 -96 -224 -96
WIRE -352 -32 -352 -48
WIRE -224 -32 -224 -96
WIRE -224 -32 -352 -32
WIRE 400 -32 400 -64
WIRE -352 0 -352 -32
WIRE 272 64 272 -240
WIRE 64 112 64 -48
WIRE 144 112 64 112
WIRE 208 112 144 112
WIRE -352 176 -352 80
WIRE 64 176 64 112
WIRE 64 176 -96 176
WIRE 64 208 64 176
WIRE -96 224 -96 176
WIRE 272 256 272 160
WIRE 368 256 272 256
WIRE 528 256 432 256
WIRE -96 320 -96 288
WIRE 64 320 64 288
WIRE 64 320 -96 320
WIRE 272 320 272 256
WIRE 528 320 528 256
WIRE -224 368 -352 368
WIRE 64 368 64 320
WIRE 64 368 -224 368
WIRE 208 368 64 368
WIRE -352 400 -352 368
WIRE 272 512 272 416
WIRE 528 512 528 400
WIRE -352 544 -352 480
FLAG 272 512 0
FLAG 528 512 0
FLAG 400 -32 0
FLAG 144 112 Vg1
FLAG 272 256 Vx
FLAG 528 256 Vo
FLAG -224 368 Vi
FLAG -352 176 0
FLAG -352 544 0
SYMBOL IRF510 208 64 R0
SYMATTR InstName U1
SYMBOL IRF9510 208 320 R0
SYMATTR InstName U2
SYMBOL cap 432 240 R90
WINDOW 0 0 32 VBottom 2
WINDOW 3 32 32 VTop 2
SYMATTR InstName Cs
SYMATTR Value 398µ
SYMBOL res 512 304 R0
SYMATTR InstName RL
SYMATTR Value 8
SYMBOL res 48 192 R0
SYMATTR InstName R1
SYMATTR Value 8.4k
SYMBOL cap -112 224 R0
SYMATTR InstName C1
SYMATTR Value 10µ
SYMBOL voltage 400 -160 R0
WINDOW 123 0 0 Left 0
WINDOW 39 0 0 Left 0
SYMATTR InstName VDD
SYMATTR Value 12
SYMBOL ALD1102 0 -144 R0
SYMATTR InstName M1
SYMBOL ALD1102 -288 -144 M0
SYMATTR InstName M2
SYMBOL voltage -352 384 R0
WINDOW 3 24 44 Left 2
WINDOW 123 0 0 Left 0
WINDOW 39 0 0 Left 0
SYMATTR Value SINE(2 1 1k)
SYMATTR InstName Vi
SYMBOL res -368 -16 R0
SYMATTR InstName R2
SYMATTR Value 10.4k
TEXT -416 568 Left 2 !.tran 50ms
TEXT -184 576 Left 2 !.lib ECE331_354.lib
