Version 4
SHEET 1 880 680
WIRE 224 16 80 16
WIRE 560 16 480 16
WIRE 80 48 80 16
WIRE 224 48 224 16
WIRE 560 48 560 16
WIRE 480 208 480 16
WIRE 224 240 224 128
WIRE 352 240 224 240
WIRE 224 272 224 240
WIRE 480 272 480 208
WIRE 352 320 352 240
WIRE 352 320 288 320
WIRE 416 320 352 320
WIRE 224 336 192 336
WIRE 512 336 480 336
WIRE 192 384 192 336
WIRE 224 384 224 368
WIRE 224 384 192 384
WIRE 480 384 480 368
WIRE 512 384 512 336
WIRE 512 384 480 384
WIRE 224 416 224 384
WIRE 480 416 480 384
FLAG 80 128 0
FLAG 224 416 0
FLAG 480 416 0
FLAG 352 240 VB
FLAG 560 128 0
FLAG 480 208 Vo
IOPIN 480 208 Out
SYMBOL voltage 80 32 R0
WINDOW 3 24 44 Left 2
WINDOW 123 0 0 Left 0
WINDOW 39 0 0 Left 0
SYMATTR Value 5
SYMATTR InstName VDD
SYMBOL res 208 32 R0
SYMATTR InstName RB
SYMATTR Value 3.662k
SYMBOL ALD1101 288 272 M0
SYMATTR InstName M1
SYMBOL ALD1101 416 272 R0
SYMATTR InstName M2
SYMBOL voltage 560 32 R0
WINDOW 123 0 0 Left 0
WINDOW 39 0 0 Left 0
SYMATTR InstName Vout
SYMATTR Value 0
TEXT 440 480 Left 2 !.lib ECE331_354.lib
TEXT 48 504 Left 2 !.dc Vout 0 5 0.01
