Version 4
SHEET 1 880 680
WIRE 112 -192 -32 -192
WIRE 496 -192 384 -192
WIRE -32 -144 -32 -192
WIRE 496 -112 496 -192
WIRE 112 -16 112 -192
WIRE 112 -16 80 -16
WIRE 384 -16 384 -192
WIRE 416 -16 384 -16
WIRE 80 16 80 -16
WIRE 112 16 80 16
WIRE 416 16 416 -16
WIRE 416 16 384 16
WIRE 240 32 176 32
WIRE 320 32 240 32
WIRE 112 128 112 80
WIRE 240 128 240 32
WIRE 240 128 112 128
WIRE 384 144 384 80
WIRE 112 192 112 128
WIRE 384 208 384 144
WIRE 320 256 256 256
WIRE 336 256 320 256
WIRE 400 272 384 272
WIRE 384 320 384 304
WIRE 400 320 400 272
WIRE 400 320 384 320
WIRE 256 336 256 256
WIRE 384 352 384 320
WIRE 112 368 112 272
FLAG 384 352 0
FLAG 112 368 0
FLAG -32 -64 0
FLAG 384 144 Vo
IOPIN 384 144 Out
FLAG 320 256 Vi
FLAG 496 -32 0
FLAG 256 416 0
SYMBOL ALD1102 176 -16 M0
SYMATTR InstName M1
SYMBOL ALD1102 320 -16 R0
SYMATTR InstName M2
SYMBOL ALD1101 320 208 R0
SYMATTR InstName M3
SYMBOL res 96 176 R0
SYMATTR InstName RB
SYMATTR Value 3.375k
SYMBOL voltage -32 -160 R0
WINDOW 3 24 44 Left 2
WINDOW 123 0 0 Left 0
WINDOW 39 0 0 Left 0
SYMATTR Value 5
SYMATTR InstName VDD
SYMBOL voltage 496 -128 R0
WINDOW 123 0 0 Left 0
WINDOW 39 0 0 Left 0
SYMATTR InstName V1
SYMATTR Value 5
SYMBOL voltage 256 320 R0
WINDOW 123 0 0 Left 0
WINDOW 39 0 0 Left 0
SYMATTR InstName V2
SYMATTR Value SINE(1.402 5m 1k)
TEXT 416 472 Left 2 !.lib ECE331_354.lib
TEXT -66 492 Left 2 !.tran 10ms
