Version 4
SHEET 1 880 680
WIRE 400 -208 176 -208
WIRE 400 -144 400 -208
WIRE 176 -112 176 -208
WIRE 400 0 400 -64
WIRE 176 48 176 -32
WIRE 176 48 48 48
WIRE 176 144 176 48
WIRE 32 192 -80 192
WIRE 112 192 32 192
WIRE -80 208 -80 192
WIRE 240 208 176 208
WIRE 176 272 176 240
WIRE 240 272 240 208
WIRE -80 320 -80 288
FLAG 176 272 0
FLAG 240 272 0
FLAG 32 192 Vin
FLAG 400 0 0
FLAG 48 48 Vout
FLAG -80 320 0
FLAG 400 -208 VDD
SYMBOL voltage 400 -160 R0
WINDOW 123 0 0 Left 0
WINDOW 39 0 0 Left 0
SYMATTR InstName VDD
SYMATTR Value 5
SYMBOL res 160 -128 R0
WINDOW 3 36 68 Left 2
SYMATTR Value 2466
SYMATTR InstName RD
SYMBOL ALD1101 112 144 R0
SYMATTR InstName M1
SYMATTR SpiceModel ""
SYMATTR SpiceLine ""
SYMATTR Value ALD1101
SYMATTR Value2 W=1.379e-3 L=1E-6
SYMBOL voltage -80 192 R0
WINDOW 123 0 0 Left 0
WINDOW 39 0 0 Left 0
SYMATTR InstName V1
SYMATTR Value SINE(1.377 5m 1k)
TEXT 424 352 Left 2 !.lib ECE331_354.lib
TEXT -114 372 Left 2 !.tran 0 10m 0 10m
